[General]
network = test.common.TestBus
ned-path = /home/kimdawoon/study/workspace/research/project_smartCharging_macLayer_improvement/csma_ca_hpgp_withINET;/home/kimdawoon/study/workspace/research/inet_plc/inet/src;/home/kimdawoon/study/workspace/research/project_smartCharging_macLayer_improvement/csma_ca_hpgp_withINET/test/common;/home/kimdawoon/study/workspace/research/project_smartCharging_macLayer_improvement/csma_ca_hpgp_withINET/research/hpgp_mac_protocol/scenarios/worstcase_slac_dc
image-path = /home/kimdawoon/study/workspace/research/inet_plc/inet/images
sim-time-limit = 10.0s
result-dir = /home/kimdawoon/study/workspace/research/project_smartCharging_macLayer_improvement/csma_ca_hpgp_withINET/research/hpgp_mac_protocol/results/log/184031_24_09_2025_ev50_evse1/results
cmdenv-express-mode = false
**.cmdenv-log-level = info

**.numEvs = 50

# Timings
**.plc.slotTime = 35.84us
**.plc.prs0Duration = 35.84us
**.plc.prs1Duration = 35.84us

# Rates: unify MAC/PHY at 14 Mbps (HPGP PHY) via interface-level params
**.plc.bitrate = 14Mbps
**.plc.dataRate = 14Mbps
**.plc.mac.bitrate = 14Mbps
**.plc.phy.dataRate = 14Mbps

# Priorities and DC
**.evse.slac.startJitter = 0ms
**.ev*.slac.startJitter = 0ms
**.evse.slac.startPriority = 3
**.ev*.slac.startPriority = 3
**.slac.dcPeriod = 100ms
**.slac.dcPriority = 0
**.slac.dcRspDelay = 5ms
**.ev*.slac.simulateNoEvse = false
**.evse.slac.simulateNoEvse = false
**.evse.slac.role = "EVSE"
**.ev*.slac.role = "EV"
**.evse.slac.nodeId = 1

# Diagnostic: force EV to unicast DC_REQUEST to EVSE (nodeId=1)
**.ev*.slac.testUnicastEvse = true
**.ev*.slac.testTargetNodeId = 1
**.ev*.slac.testDcUseCap3 = true

# Test-only injection OFF for real experiment
**.evse.plc.phy.testInjectDcAtEvse = false
**.evse.plc.phy.testInjectRepeat = 0

**.statistic-recording = true
record-eventlog = true

# (per-statistic recording removed for debug; focus on normal termination first)
# --- orchestrator overrides ---
seed-set = 333
**.evse.slac.dcRspDelay = 5ms
**.evse.slac.nodeId = 1
**.ev[0].slac.nodeId = 2
**.ev[1].slac.nodeId = 3
**.ev[2].slac.nodeId = 4
**.ev[3].slac.nodeId = 5
**.ev[4].slac.nodeId = 6
**.ev[5].slac.nodeId = 7
**.ev[6].slac.nodeId = 8
**.ev[7].slac.nodeId = 9
**.ev[8].slac.nodeId = 10
**.ev[9].slac.nodeId = 11
**.ev[10].slac.nodeId = 12
**.ev[11].slac.nodeId = 13
**.ev[12].slac.nodeId = 14
**.ev[13].slac.nodeId = 15
**.ev[14].slac.nodeId = 16
**.ev[15].slac.nodeId = 17
**.ev[16].slac.nodeId = 18
**.ev[17].slac.nodeId = 19
**.ev[18].slac.nodeId = 20
**.ev[19].slac.nodeId = 21
**.ev[20].slac.nodeId = 22
**.ev[21].slac.nodeId = 23
**.ev[22].slac.nodeId = 24
**.ev[23].slac.nodeId = 25
**.ev[24].slac.nodeId = 26
**.ev[25].slac.nodeId = 27
**.ev[26].slac.nodeId = 28
**.ev[27].slac.nodeId = 29
**.ev[28].slac.nodeId = 30
**.ev[29].slac.nodeId = 31
**.ev[30].slac.nodeId = 32
**.ev[31].slac.nodeId = 33
**.ev[32].slac.nodeId = 34
**.ev[33].slac.nodeId = 35
**.ev[34].slac.nodeId = 36
**.ev[35].slac.nodeId = 37
**.ev[36].slac.nodeId = 38
**.ev[37].slac.nodeId = 39
**.ev[38].slac.nodeId = 40
**.ev[39].slac.nodeId = 41
**.ev[40].slac.nodeId = 42
**.ev[41].slac.nodeId = 43
**.ev[42].slac.nodeId = 44
**.ev[43].slac.nodeId = 45
**.ev[44].slac.nodeId = 46
**.ev[45].slac.nodeId = 47
**.ev[46].slac.nodeId = 48
**.ev[47].slac.nodeId = 49
**.ev[48].slac.nodeId = 50
**.ev[49].slac.nodeId = 51
**.scalar-recording = true
**.result-recording-modes = all
result-dir = /home/kimdawoon/study/workspace/research/project_smartCharging_macLayer_improvement/csma_ca_hpgp_withINET/research/hpgp_mac_protocol/results/log/184031_24_09_2025_ev50_evse1/results
**.slac.scalar-recording = true
**.plc.mac.scalar-recording = true
**.plc.phy.scalar-recording = true
**.slac.result-recording-modes = all
**.plc.mac.result-recording-modes = all
**.plc.phy.result-recording-modes = all
**.plc.phy.enableCollisionModel = true
TestBus.ev[*].slac.scalar-recording = true
TestBus.evse.slac.scalar-recording = true
TestBus.ev[*].plc.mac.scalar-recording = true
TestBus.ev[*].plc.phy.scalar-recording = true
TestBus.evse.plc.mac.scalar-recording = true
TestBus.evse.plc.phy.scalar-recording = true
cmdenv-status-frequency = 1s
