[General]
network = test.common.TestBus
ned-path = .;/home/kimdawoon/study/workspace/research/project_smartCharging_macLayer_improvement/csma_ca_hpgp_withINET;/home/kimdawoon/study/workspace/research/inet_plc/inet/src;/home/kimdawoon/study/workspace/research/project_smartCharging_macLayer_improvement/csma_ca_hpgp_withINET/test/common
image-path = /home/kimdawoon/study/workspace/research/inet_plc/inet/images
sim-time-limit = 5s

**.numEvs = 6
**.plc.slotTime = 35.84us
**.plc.prs0Duration = 35.84us
**.plc.prs1Duration = 35.84us
**.ev*.slac.startJitter = 0ms
**.slac.dcPeriod = 40ms
**.slac.dcPriority = 0
**.slac.dcRspDelay = 1ms
# Worst-case collision knob (if supported in ChannelManager)
**.plc.mac.equalCapAllCollide = true

**.statistic-recording = true
record-eventlog = true
