[General]
network = test.common.TestBus
ned-path = .;/home/kimdawoon/study/workspace/research/project_smartCharging_macLayer_improvement/csma_ca_hpgp_withINET;/home/kimdawoon/study/workspace/research/inet_plc/inet/src;/home/kimdawoon/study/workspace/research/project_smartCharging_macLayer_improvement/csma_ca_hpgp_withINET/test/common
image-path = /home/kimdawoon/study/workspace/research/inet_plc/inet/images
sim-time-limit = 5s

**.numEvs = 8
**.ev[*].slac.startPriority = 3
**.plc.slotTime = 35.84us
**.plc.prs0Duration = 35.84us
**.plc.prs1Duration = 35.84us
**.slac.dcPeriod = 500us
**.slac.dcPriority = 0
**.plc.phy.enableCollisionModel = true
**.ev[*].slac.testSyncStart = true
**.ev[*].slac.testInjectPostSlacMsgs = false
**.ev[*].slac.testPostSlacPeriod = 0s
**.ev[*].slac.testCycleCap123 = false
**.ev[*].slac.testAllowPreSlacSweep = false
**.evse.slac.testInjectPostSlacMsgs = false
**.evse.slac.testPostSlacPeriod = 0s

# Force EVs to send DC commands at CAP0 only after SLAC
**.ev[*].slac.testForceCap0Only = true
**.evse.slac.testCycleCap123 = false
**.evse.slac.testAllowPreSlacSweep = false
**.evse.slac.testDisableDc = true
**.statistic-recording = true
record-eventlog = true

# Option B disabled after validation
**.plc.mac.testForceBc0Once = false
