[General]
network = test.common.TestBus
ned-path = /home/kimdawoon/study/workspace/research/project_smartCharging_macLayer_improvement/csma_ca_hpgp_withINET;/home/kimdawoon/study/workspace/research/inet_plc/inet/src;/home/kimdawoon/study/workspace/research/project_smartCharging_macLayer_improvement/csma_ca_hpgp_withINET/test/common;/home/kimdawoon/study/workspace/research/project_smartCharging_macLayer_improvement/csma_ca_hpgp_withINET/research/hpgp_mac_protocol/scenarios/worstcase_slac_dc
image-path = /home/kimdawoon/study/workspace/research/inet_plc/inet/images
sim-time-limit = 10.0s
result-dir = /home/kimdawoon/study/workspace/research/project_smartCharging_macLayer_improvement/csma_ca_hpgp_withINET/research/hpgp_mac_protocol/results/log/155153_21_09_2025_ev100_evse1/results
cmdenv-express-mode = false
**.cmdenv-log-level = info

**.numEvs = 100

# Timings
**.plc.slotTime = 35.84us
**.plc.prs0Duration = 35.84us
**.plc.prs1Duration = 35.84us

# Rates: unify MAC/PHY at 14 Mbps (HPGP PHY) via interface-level params
**.plc.bitrate = 14Mbps
**.plc.dataRate = 14Mbps
**.plc.mac.bitrate = 14Mbps
**.plc.phy.dataRate = 14Mbps

# Priorities and DC
**.evse.slac.startJitter = 0ms
**.ev*.slac.startJitter = 0ms
**.evse.slac.startPriority = 3
**.ev*.slac.startPriority = 3
**.slac.dcPeriod = 100ms
**.slac.dcPriority = 0
**.slac.dcRspDelay = 5ms
**.ev*.slac.simulateNoEvse = false
**.evse.slac.simulateNoEvse = false
**.evse.slac.role = "EVSE"
**.ev*.slac.role = "EV"
**.evse.slac.nodeId = 1

# Diagnostic: force EV to unicast DC_REQUEST to EVSE (nodeId=1)
**.ev*.slac.testUnicastEvse = true
**.ev*.slac.testTargetNodeId = 1
**.ev*.slac.testDcUseCap3 = true

# Test-only injection OFF for real experiment
**.evse.plc.phy.testInjectDcAtEvse = false
**.evse.plc.phy.testInjectRepeat = 0

**.statistic-recording = true
record-eventlog = true

# (per-statistic recording removed for debug; focus on normal termination first)
# --- orchestrator overrides ---
seed-set = 1
**.evse.slac.dcRspDelay = 5ms
**.evse.slac.nodeId = 1
**.ev[0].slac.nodeId = 2
**.ev[1].slac.nodeId = 3
**.ev[2].slac.nodeId = 4
**.ev[3].slac.nodeId = 5
**.ev[4].slac.nodeId = 6
**.ev[5].slac.nodeId = 7
**.ev[6].slac.nodeId = 8
**.ev[7].slac.nodeId = 9
**.ev[8].slac.nodeId = 10
**.ev[9].slac.nodeId = 11
**.ev[10].slac.nodeId = 12
**.ev[11].slac.nodeId = 13
**.ev[12].slac.nodeId = 14
**.ev[13].slac.nodeId = 15
**.ev[14].slac.nodeId = 16
**.ev[15].slac.nodeId = 17
**.ev[16].slac.nodeId = 18
**.ev[17].slac.nodeId = 19
**.ev[18].slac.nodeId = 20
**.ev[19].slac.nodeId = 21
**.ev[20].slac.nodeId = 22
**.ev[21].slac.nodeId = 23
**.ev[22].slac.nodeId = 24
**.ev[23].slac.nodeId = 25
**.ev[24].slac.nodeId = 26
**.ev[25].slac.nodeId = 27
**.ev[26].slac.nodeId = 28
**.ev[27].slac.nodeId = 29
**.ev[28].slac.nodeId = 30
**.ev[29].slac.nodeId = 31
**.ev[30].slac.nodeId = 32
**.ev[31].slac.nodeId = 33
**.ev[32].slac.nodeId = 34
**.ev[33].slac.nodeId = 35
**.ev[34].slac.nodeId = 36
**.ev[35].slac.nodeId = 37
**.ev[36].slac.nodeId = 38
**.ev[37].slac.nodeId = 39
**.ev[38].slac.nodeId = 40
**.ev[39].slac.nodeId = 41
**.ev[40].slac.nodeId = 42
**.ev[41].slac.nodeId = 43
**.ev[42].slac.nodeId = 44
**.ev[43].slac.nodeId = 45
**.ev[44].slac.nodeId = 46
**.ev[45].slac.nodeId = 47
**.ev[46].slac.nodeId = 48
**.ev[47].slac.nodeId = 49
**.ev[48].slac.nodeId = 50
**.ev[49].slac.nodeId = 51
**.ev[50].slac.nodeId = 52
**.ev[51].slac.nodeId = 53
**.ev[52].slac.nodeId = 54
**.ev[53].slac.nodeId = 55
**.ev[54].slac.nodeId = 56
**.ev[55].slac.nodeId = 57
**.ev[56].slac.nodeId = 58
**.ev[57].slac.nodeId = 59
**.ev[58].slac.nodeId = 60
**.ev[59].slac.nodeId = 61
**.ev[60].slac.nodeId = 62
**.ev[61].slac.nodeId = 63
**.ev[62].slac.nodeId = 64
**.ev[63].slac.nodeId = 65
**.ev[64].slac.nodeId = 66
**.ev[65].slac.nodeId = 67
**.ev[66].slac.nodeId = 68
**.ev[67].slac.nodeId = 69
**.ev[68].slac.nodeId = 70
**.ev[69].slac.nodeId = 71
**.ev[70].slac.nodeId = 72
**.ev[71].slac.nodeId = 73
**.ev[72].slac.nodeId = 74
**.ev[73].slac.nodeId = 75
**.ev[74].slac.nodeId = 76
**.ev[75].slac.nodeId = 77
**.ev[76].slac.nodeId = 78
**.ev[77].slac.nodeId = 79
**.ev[78].slac.nodeId = 80
**.ev[79].slac.nodeId = 81
**.ev[80].slac.nodeId = 82
**.ev[81].slac.nodeId = 83
**.ev[82].slac.nodeId = 84
**.ev[83].slac.nodeId = 85
**.ev[84].slac.nodeId = 86
**.ev[85].slac.nodeId = 87
**.ev[86].slac.nodeId = 88
**.ev[87].slac.nodeId = 89
**.ev[88].slac.nodeId = 90
**.ev[89].slac.nodeId = 91
**.ev[90].slac.nodeId = 92
**.ev[91].slac.nodeId = 93
**.ev[92].slac.nodeId = 94
**.ev[93].slac.nodeId = 95
**.ev[94].slac.nodeId = 96
**.ev[95].slac.nodeId = 97
**.ev[96].slac.nodeId = 98
**.ev[97].slac.nodeId = 99
**.ev[98].slac.nodeId = 100
**.ev[99].slac.nodeId = 101
**.scalar-recording = true
**.result-recording-modes = all
result-dir = /home/kimdawoon/study/workspace/research/project_smartCharging_macLayer_improvement/csma_ca_hpgp_withINET/research/hpgp_mac_protocol/results/log/155153_21_09_2025_ev100_evse1/results
**.slac.scalar-recording = true
**.plc.mac.scalar-recording = true
**.plc.phy.scalar-recording = true
**.slac.result-recording-modes = all
**.plc.mac.result-recording-modes = all
**.plc.phy.result-recording-modes = all
TestBus.ev[*].slac.scalar-recording = true
TestBus.evse.slac.scalar-recording = true
TestBus.ev[*].plc.mac.scalar-recording = true
TestBus.ev[*].plc.phy.scalar-recording = true
TestBus.evse.plc.mac.scalar-recording = true
TestBus.evse.plc.phy.scalar-recording = true
cmdenv-status-frequency = 1s
