[General]
network = test.common.TestBus
ned-path = .;/home/kimdawoon/study/workspace/research/project_smartCharging_macLayer_improvement/csma_ca_hpgp_withINET;/home/kimdawoon/study/workspace/research/inet_plc/inet/src;/home/kimdawoon/study/workspace/research/project_smartCharging_macLayer_improvement/csma_ca_hpgp_withINET/test/common;/home/kimdawoon/study/workspace/research/project_smartCharging_macLayer_improvement/csma_ca_hpgp_withINET/test/slac_tc4
image-path = /home/kimdawoon/study/workspace/research/inet_plc/inet/images
sim-time-limit = 3s
cmdenv-express-mode = false
**.cmdenv-log-level = info

**.numEvs = 1

# Drop every 3rd M_SOUND
**.slac.numMsound = 10
**.slac.numStartAtten = 3
**.slac.startPriority = 3
**.slac.msoundDropEveryK = 3
**.slac.simulateNoEvse = false

**.statistic-recording = true
record-eventlog = true
