[General]
network = test.common.TestBus
ned-path = .;/home/kimdawoon/study/workspace/research/project_smartCharging_macLayer_improvement/csma_ca_hpgp_withINET;/home/kimdawoon/study/workspace/research/inet_plc/inet/src;/home/kimdawoon/study/workspace/research/project_smartCharging_macLayer_improvement/csma_ca_hpgp_withINET/test/common
image-path = /home/kimdawoon/study/workspace/research/inet_plc/inet/images
sim-time-limit = 3s
cmdenv-express-mode = false
**.cmdenv-log-level = info

**.numEvs = 1

# Induce no-EVSE response: high noise / BER
**.plc.slotTime = 35.84us
**.plc.prs0Duration = 35.84us
**.plc.prs1Duration = 35.84us
**.phy.enableBER = true
**.phy.maxBER = 1.0
**.phy.noisePower = -30dBm

**.slac.numMsound = 5
**.slac.startPriority = 3
**.slac.dcPriority = 0
**.slac.simulateNoEvse = true

**.statistic-recording = true
record-eventlog = true

