[General]
network = test.common.TestBus
ned-path = .;/home/kimdawoon/study/workspace/research/project_smartCharging_macLayer_improvement/csma_ca_hpgp_withINET;/home/kimdawoon/study/workspace/research/inet_plc/inet/src;/home/kimdawoon/study/workspace/research/project_smartCharging_macLayer_improvement/csma_ca_hpgp_withINET/test/common
image-path = /home/kimdawoon/study/workspace/research/inet_plc/inet/images
sim-time-limit = 5s

**.numEvs = 1

# Timings (Jung 2005 / HPGP GP)
**.evse.plc.slotTime = 35.84us
**.evse.plc.prs0Duration = 35.84us
**.evse.plc.prs1Duration = 35.84us
**.ev[0].plc.slotTime = 35.84us
**.ev[0].plc.prs0Duration = 35.84us
**.ev[0].plc.prs1Duration = 35.84us

# App timing
**.evse.slac.startJitter = 0ms
**.ev[0].slac.startJitter = 0ms
**.slac.dcPeriod = 200ms
**.slac.dcRspDelay = 2ms

**.statistic-recording = true
record-eventlog = true
