[General]
network = test.common.TestBus
ned-path = .;/home/kimdawoon/study/workspace/research/project_smartCharging_macLayer_improvement/csma_ca_hpgp_withINET;/home/kimdawoon/study/workspace/research/inet_plc/inet/src;/home/kimdawoon/study/workspace/research/project_smartCharging_macLayer_improvement/csma_ca_hpgp_withINET/test/common
image-path = /home/kimdawoon/study/workspace/research/inet_plc/inet/images
sim-time-limit = 6.2s

**.numEvs = 4

# Timings
**.plc.slotTime = 35.84us
**.plc.prs0Duration = 35.84us
**.plc.prs1Duration = 35.84us

# Priorities: All nodes use CAP=3 for SLAC and DC
**.evse.slac.startJitter = 0ms
**.ev*.slac.startJitter = 0ms
**.evse.slac.startPriority = 3
**.ev*.slac.startPriority = 3
**.slac.dcPeriod = 200ms
**.slac.dcPriority = 0
**.slac.dcRspDelay = 2ms

**.statistic-recording = true
record-eventlog = true
