[General]
## 필수 경로 ---------------------------------------------------------------
network = csma_ca.CsmaCaNetwork
ned-path = /home/kimdawoon/study/workspace/research/inet/src;\
/home/kimdawoon/study/workspace/research/project_smartCharging_macLayer_improvement/csma_ca_example/ned
load-libs = /home/kimdawoon/study/workspace/research/inet/out/clang-release/src/INET

## 시뮬레이션 기본 ---------------------------------------------------------
sim-time-limit = 60s
#cmdenv-event-limit = 0      # 이벤트 개수 제한 없음
output-scalar-file = results/scalars.sca
output-vector-file = results/vectors.vec

## 무선 채널 파라미터 ------------------------------------------------------
**.radioMedium.backgroundNoise.power = -110dBm   # 프롬프트 방지용 기본 노이즈

[Config Base]
description = "기본: 5 노드, 랜덤 UDP 트래픽"
**.numNodes = ${n=5}

# 애플리케이션 설정
*.host[*].numUdpApps = 1
*.host[*].udpApp[0].typename = "UdpBasicApp"
*.host[*].udpApp[0].destAddresses = "host[0..-1]"   # 브로드캐스트(자기 포함)
*.host[*].udpApp[0].messageLength = 1000B
*.host[*].udpApp[0].sendInterval = exponential(1s)

[Config Nodes10]
extends = Base
description = "10 노드"
**.numNodes = 10

[Config Nodes20]
extends = Base
description = "20 노드"
**.numNodes = 20
