[General]
network = test.common.TestBus
ned-path = .;/home/kimdawoon/study/workspace/research/project_smartCharging_macLayer_improvement/csma_ca_hpgp_withINET;/home/kimdawoon/study/workspace/research/inet_plc/inet/src;/home/kimdawoon/study/workspace/research/project_smartCharging_macLayer_improvement/csma_ca_hpgp_withINET/test/common
image-path = /home/kimdawoon/study/workspace/research/inet_plc/inet/images
sim-time-limit = 2s

**.numEvs = 2
**.plc.slotTime = 35.84us
**.plc.prs0Duration = 35.84us
**.plc.prs1Duration = 35.84us
**.slac.dcPeriod = 20ms
**.slac.dcPriority = 0
**.plc.phy.enableCollisionModel = true
**.ev[*].slac.testSyncStart = true
**.ev[*].slac.testInjectPostSlacMsgs = true
**.ev[*].slac.testPostSlacPeriod = 1ms
**.ev[*].slac.testCycleCap123 = true
**.ev[*].slac.testAllowPreSlacSweep = true
**.evse.slac.testInjectPostSlacMsgs = true
**.evse.slac.testPostSlacPeriod = 1ms
**.evse.slac.testCycleCap123 = true
**.evse.slac.testAllowPreSlacSweep = true
**.statistic-recording = true
record-eventlog = true
