[General]
network = test.common.TestBus
ned-path = .;/home/kimdawoon/study/workspace/research/project_smartCharging_macLayer_improvement/csma_ca_hpgp_withINET;/home/kimdawoon/study/workspace/research/inet_plc/inet/src;/home/kimdawoon/study/workspace/research/project_smartCharging_macLayer_improvement/csma_ca_hpgp_withINET/test/common
image-path = /home/kimdawoon/study/workspace/research/inet_plc/inet/images
sim-time-limit = 3s
cmdenv-express-mode = false
**.cmdenv-log-level = info

**.numEvs = 1

# High BER / severe impairment to block EVSE responses
# Mild impairments + drop only at MATCH_CNF
**.slac.testJamOnMatchCnf = true

**.plc.slotTime = 35.84us
**.plc.prs0Duration = 35.84us
**.plc.prs1Duration = 35.84us

**.slac.numMsound = 5
**.slac.startPriority = 3
**.slac.dcPriority = 0
**.slac.simulateNoEvse = false

**.statistic-recording = true
record-eventlog = true

