[General]
network = test.common.TestBus
ned-path = /home/kimdawoon/study/workspace/research/project_smartCharging_macLayer_improvement/csma_ca_hpgp_withINET;/home/kimdawoon/study/workspace/research/inet_plc/inet/src;/home/kimdawoon/study/workspace/research/project_smartCharging_macLayer_improvement/csma_ca_hpgp_withINET/test/common;/home/kimdawoon/study/workspace/research/project_smartCharging_macLayer_improvement/csma_ca_hpgp_withINET/research/hpgp_mac_protocol/scenarios/worstcase_slac_dc
image-path = /home/kimdawoon/study/workspace/research/inet_plc/inet/images
sim-time-limit = 10.0s
result-dir = /home/kimdawoon/study/workspace/research/project_smartCharging_macLayer_improvement/csma_ca_hpgp_withINET/research/hpgp_mac_protocol/results/log/154742_21_09_2025_ev10_evse1/results
cmdenv-express-mode = false
**.cmdenv-log-level = info

**.numEvs = 10

# Timings
**.plc.slotTime = 35.84us
**.plc.prs0Duration = 35.84us
**.plc.prs1Duration = 35.84us

# Rates: unify MAC/PHY at 14 Mbps (HPGP PHY) via interface-level params
**.plc.bitrate = 14Mbps
**.plc.dataRate = 14Mbps
**.plc.mac.bitrate = 14Mbps
**.plc.phy.dataRate = 14Mbps

# Priorities and DC
**.evse.slac.startJitter = 0ms
**.ev*.slac.startJitter = 0ms
**.evse.slac.startPriority = 3
**.ev*.slac.startPriority = 3
**.slac.dcPeriod = 100ms
**.slac.dcPriority = 0
**.slac.dcRspDelay = 5ms
**.ev*.slac.simulateNoEvse = false
**.evse.slac.simulateNoEvse = false
**.evse.slac.role = "EVSE"
**.ev*.slac.role = "EV"
**.evse.slac.nodeId = 1

# Diagnostic: force EV to unicast DC_REQUEST to EVSE (nodeId=1)
**.ev*.slac.testUnicastEvse = true
**.ev*.slac.testTargetNodeId = 1
**.ev*.slac.testDcUseCap3 = true

# Test-only injection OFF for real experiment
**.evse.plc.phy.testInjectDcAtEvse = false
**.evse.plc.phy.testInjectRepeat = 0

**.statistic-recording = true
record-eventlog = true

# (per-statistic recording removed for debug; focus on normal termination first)
# --- orchestrator overrides ---
seed-set = 3
**.evse.slac.dcRspDelay = 5ms
**.evse.slac.nodeId = 1
**.ev[0].slac.nodeId = 2
**.ev[1].slac.nodeId = 3
**.ev[2].slac.nodeId = 4
**.ev[3].slac.nodeId = 5
**.ev[4].slac.nodeId = 6
**.ev[5].slac.nodeId = 7
**.ev[6].slac.nodeId = 8
**.ev[7].slac.nodeId = 9
**.ev[8].slac.nodeId = 10
**.ev[9].slac.nodeId = 11
**.scalar-recording = true
**.result-recording-modes = all
result-dir = /home/kimdawoon/study/workspace/research/project_smartCharging_macLayer_improvement/csma_ca_hpgp_withINET/research/hpgp_mac_protocol/results/log/154742_21_09_2025_ev10_evse1/results
**.slac.scalar-recording = true
**.plc.mac.scalar-recording = true
**.plc.phy.scalar-recording = true
**.slac.result-recording-modes = all
**.plc.mac.result-recording-modes = all
**.plc.phy.result-recording-modes = all
TestBus.ev[*].slac.scalar-recording = true
TestBus.evse.slac.scalar-recording = true
TestBus.ev[*].plc.mac.scalar-recording = true
TestBus.ev[*].plc.phy.scalar-recording = true
TestBus.evse.plc.mac.scalar-recording = true
TestBus.evse.plc.phy.scalar-recording = true
cmdenv-status-frequency = 1s
