[General]
network = test.common.TestBus
ned-path = .;/home/kimdawoon/study/workspace/research/project_smartCharging_macLayer_improvement/csma_ca_hpgp_withINET;/home/kimdawoon/study/workspace/research/inet_plc/inet/src;/home/kimdawoon/study/workspace/research/project_smartCharging_macLayer_improvement/csma_ca_hpgp_withINET/test/common
image-path = /home/kimdawoon/study/workspace/research/inet_plc/inet/images
sim-time-limit = 2s

**.numEvs = 2
**.plc.slotTime = 35.84us
**.plc.prs0Duration = 35.84us
**.plc.prs1Duration = 35.84us
**.slac.dcPeriod = 20ms
**.slac.dcPriority = 0
**.plc.phy.enableCollisionModel = true
**.statistic-recording = true
record-eventlog = true

# Ensure Cmdenv prints detailed logs so validators can parse
cmdenv-event-banners = true
cmdenv-express-mode = false
cmdenv-log-level = info
